/*--------------------------------*- C++ -*----------------------------------*\
| =========                 |                                                 |
| \\      /  F ield         | OpenFOAM : The Open Source CFD Toolbox           |
|  \\    /   O peration     | Version : 2506                                   |
|   \\  /    A nd           | Website : www.openfoam.com                       |
|    \\/     M anipulation  |                                                 |
\*---------------------------------------------------------------------------*/

FoamFile
{
    version     2.0;
    format      ascii;
    class       uniformDimensionedVectorField;
    location    "constant";
    object      g;
}

// * * * * * * * * * * * * * * * * * * * * * * * * * * * * * * * * * * * * * //

dimensions      [0 1 -2 0 0 0 0];   // m/s^2

value           (0 0 -9.81);       // Gravité en direction -z
