/*--------------------------------*- C++ -*----------------------------------*\
| =========                 |                                                 |
| \\      /  F ield         | OpenFOAM : The Open Source CFD Toolbox           |
|  \\    /   O peration     | Version : 2506                                   |
|   \\  /    A nd           | Website : www.openfoam.com                       |
|    \\/     M anipulation  |                                                 |
\*---------------------------------------------------------------------------*/

FoamFile
{
    version     2.0;
    format      ascii;
    class       dictionary;
    location    "constant";
    object      transportProperties;
}

transportModel  Newtonian;

// Viscosité cinématique de l'air à 20°C
nu              [0 2 -1 0 0 0 0] 1.5e-05;
