/*--------------------------------*- C++ -*----------------------------------*\
| =========                 |                                                 |
| \\      /  F ield         | OpenFOAM : The Open Source CFD Toolbox           |
|  \\    /   O peration     | Version : 2506                                   |
|   \\  /    A nd           | Website : www.openfoam.com                       |
|    \\/     M anipulation  |                                                 |
\*---------------------------------------------------------------------------*/

FoamFile
{
    version     2.0;
    format      ascii;
    class       dictionary;
    location    "constant";
    object      turbulenceProperties;
}

// * * * * * * * * * * * * * * * * * * * * * * * * * * * * * * * * * * * * * //

simulationType  RAS; // Reynolds-Averaged Simulation

RAS
{
    RASModel        kEpsilon;  // Modèle k-epsilon standard
    turbulence      on;
    printCoeffs     on;
}
